Circuit: * C:\Users\JBL\Desktop\tarea 2\Ej1-1db.asc


Date: Sat May 08 20:18:56 2021
Total elapsed time: 0.029 seconds.

tnom = 27
temp = 27
method = trap
totiter = 0
traniter = 0
tranpoints = 0
accept = 0
rejected = 0
matrix size = 3
fillins = 1
solver = Normal

