Circuit: * C:\Users\JBL\Desktop\tarea 2\Ej1.asc


Date: Sat May 08 15:29:56 2021
Total elapsed time: 0.031 seconds.

tnom = 27
temp = 27
method = trap
totiter = 0
traniter = 0
tranpoints = 0
accept = 0
rejected = 0
matrix size = 3
fillins = 1
solver = Normal

