Circuit: * C:\Users\JBL\Desktop\4to año\TC2\Tareas\TS16\norm-param-s.asc


Date: Thu Nov 25 19:10:49 2021
Total elapsed time: 0.050 seconds.

tnom = 27
temp = 27
method = trap
totiter = 0
traniter = 0
tranpoints = 0
accept = 0
rejected = 0
matrix size = 5
fillins = 0
solver = Normal

