Circuit: * C:\Users\JBL\Desktop\4to año\TC2\Tareas\TS16\norm-transf.asc


Date: Thu Nov 25 19:10:39 2021
Total elapsed time: 0.021 seconds.

tnom = 27
temp = 27
method = trap
totiter = 0
traniter = 0
tranpoints = 0
accept = 0
rejected = 0
matrix size = 5
fillins = 1
solver = Normal

