Circuit: * C:\Users\JBL\Desktop\TS12\simulaciones\ej2a.asc


Date: Wed Oct 13 19:38:57 2021
Total elapsed time: 0.041 seconds.

tnom = 27
temp = 27
method = trap
totiter = 0
traniter = 0
tranpoints = 0
accept = 0
rejected = 0
matrix size = 4
fillins = 1
solver = Normal

