Circuit: * C:\Users\JBL\Desktop\TS14\sim\80db.asc


Date: Wed Nov 03 21:12:07 2021
Total elapsed time: 0.246 seconds.

tnom = 27
temp = 27
method = trap
totiter = 0
traniter = 0
tranpoints = 0
accept = 0
rejected = 0
matrix size = 16
fillins = 2
solver = Normal

