Circuit: * C:\Users\JBL\Desktop\TS14\sim\ts14-ej1.asc

Number of points per decade reduced from 100000 to 12685.

Date: Wed Nov 03 21:06:00 2021
Total elapsed time: 0.164 seconds.

tnom = 27
temp = 27
method = trap
totiter = 0
traniter = 0
tranpoints = 0
accept = 0
rejected = 0
matrix size = 4
fillins = 1
solver = Normal

