Circuit: * C:\Users\JBL\Desktop\TS13\simulaciones\ej2.asc


Date: Wed Oct 13 22:13:09 2021
Total elapsed time: 0.077 seconds.

tnom = 27
temp = 27
method = trap
totiter = 0
traniter = 0
tranpoints = 0
accept = 0
rejected = 0
matrix size = 2
fillins = 0
solver = Normal

