Circuit: * C:\Users\JBL\Desktop\TS15\sim\Draft2.asc


Date: Thu Nov 04 20:53:41 2021
Total elapsed time: 0.024 seconds.

tnom = 27
temp = 27
method = trap
totiter = 0
traniter = 0
tranpoints = 0
accept = 0
rejected = 0
matrix size = 4
fillins = 0
solver = Normal

