Circuit: * C:\Users\JBL\Desktop\TS15\sim\ej1-norm.asc

WARNING: Node N001 is floating.
WARNING: Node N003 is floating.


Date: Thu Nov 04 20:48:57 2021
Total elapsed time: 0.073 seconds.

tnom = 27
temp = 27
method = trap
totiter = 0
traniter = 0
tranpoints = 0
accept = 0
rejected = 0
matrix size = 9
fillins = 0
solver = Normal

