Circuit: * C:\Users\JBL\Desktop\TS15\sim\secciones.asc

WARNING: Node N005 is floating.


Date: Thu Nov 04 21:01:10 2021
Total elapsed time: 0.074 seconds.

tnom = 27
temp = 27
method = trap
totiter = 0
traniter = 0
tranpoints = 0
accept = 0
rejected = 0
matrix size = 9
fillins = 2
solver = Normal

